CE
GW 1 2 0 0 0 0 0 1 0.001
GW 2 2 0 0 0 0 1 0 0.001
GW 3 2 0 0 1 0 1 0 0.001
GE 0
FR 0 1 0 0 700 50
EX 0 1 1 0 1
RP 0 1 1 0000 0 0 20 20
EN
